** written by FreeCAD inp file writer for CalculiX,Abaqus meshes
** highest dimension mesh elements only.

** Nodes
*Node, NSET=Nall
1, 0, 0, 8
2, 0, 0, 0
3, 0, 1.5, 8
4, 0, 1.5, 0
5, 1, 0, 8
6, 1, 0, 0
7, 1, 1.5, 8
8, 1, 1.5, 0
9, 0, 0.25, 8
10, 0, 0.5, 8
11, 0, 0.75, 8
12, 0, 1, 8
13, 0, 1.25, 8
14, 0, 0.25, 0
15, 0, 0.5, 0
16, 0, 0.75, 0
17, 0, 1, 0
18, 0, 1.25, 0
19, 1, 0.25, 8
20, 1, 0.5, 8
** ... 715 like lines cut


** Volume elements
*Element, TYPE=C3D8R, ELSET=Evolumes
569, 68, 67, 65, 64, 431, 526, 640, 678
570, 431, 526, 640, 678, 430, 525, 639, 677
571, 430, 525, 639, 677, 429, 524, 638, 676
572, 429, 524, 638, 676, 428, 523, 637, 675
573, 428, 523, 637, 675, 427, 522, 636, 674
574, 427, 522, 636, 674, 426, 521, 635, 673
575, 426, 521, 635, 673, 425, 520, 634, 672
576, 425, 520, 634, 672, 424, 519, 633, 671
577, 424, 519, 633, 671, 423, 518, 632, 670
578, 423, 518, 632, 670, 422, 517, 631, 669
579, 422, 517, 631, 669, 421, 516, 630, 668
580, 421, 516, 630, 668, 420, 515, 629, 667
581, 420, 515, 629, 667, 419, 514, 628, 666
582, 419, 514, 628, 666, 418, 513, 627, 665
583, 418, 513, 627, 665, 417, 512, 626, 664
584, 417, 512, 626, 664, 416, 511, 625, 663
585, 416, 511, 625, 663, 415, 510, 624, 662
586, 415, 510, 624, 662, 414, 509, 623, 661
587, 414, 509, 623, 661, 413, 508, 622, 660
588, 413, 508, 622, 660, 53, 52, 50, 49
** ... 460 like lines cut

** Define element set Eall
*ELSET, ELSET=Eall
Evolumes



***********************************************************
** Element sets for materials and FEM element type (solid, shell, beam, fluid)
*ELSET,ELSET=MechanicalMaterialSolid
Evolumes

***********************************************************
** constraints fixed node sets
** Fixed
*NSET,NSET=Fixed
2,
4,
6,
8,
14,
15,
16,
17,
18,
24,
25,
26,
27,
28,
29,
30,
31,
35,
36,
37,
** ... 15 like lines cut

** Physical constants for SI(mm) unit system with Kelvins
*PHYSICAL CONSTANTS, ABSOLUTE ZERO=0, STEFAN BOLTZMANN=5.670374419e-11

***********************************************************
** Materials
** see information about units at file end
** FreeCAD material name: CalculiX-Steel
** MechanicalMaterial
*MATERIAL, NAME=MechanicalMaterial
*ELASTIC
210000,0.3

***********************************************************
** Sections
*SOLID SECTION, ELSET=MechanicalMaterialSolid, MATERIAL=MechanicalMaterial

***********************************************************
** At least one step is needed to run an CalculiX analysis of FreeCAD
*STEP
*BUCKLE
10,0.01

***********************************************************
** Fixed Constraints
** Fixed
*BOUNDARY
Fixed,1
Fixed,2
Fixed,3


***********************************************************
** constraints force node loads
** Force
*CLOAD
** node loads on shape: Beam:Face6
1,3,-0.21875
3,3,-0.21875
5,3,-0.21875
7,3,-0.21875
9,3,-0.4375
10,3,-0.4375
11,3,-0.4375
12,3,-0.4375
13,3,-0.4375
19,3,-0.4375
20,3,-0.4375
21,3,-0.4375
22,3,-0.4375
23,3,-0.4375
32,3,-0.4375
33,3,-0.4375
34,3,-0.4375
38,3,-0.4375
39,3,-0.4375
40,3,-0.4375
** ... 15 like lines cut



***********************************************************
** Outputs --> frd file
*NODE FILE
U
*EL FILE
S, E
** outputs --> dat file
** reaction forces for Constraint fixed
*NODE PRINT, NSET=Fixed, TOTALS=ONLY
RF

*OUTPUT, FREQUENCY=1
***********************************************************
*END STEP

***********************************************************
** CalculiX Input file
**   written by    --> FreeCAD 26.3.0
**   written on    --> Fri Jul 31 10:05:37 2026
**   file name     -->
**   analysis name --> Analysis
**
**
***********************************************************
**  About units:
**  See ccx manual, ccx does not know about any unit.
**  Golden rule: The user must make sure that the numbers they provide have consistent units.
**  The user is the FreeCAD calculix writer module ;-)
**
**  The unit system which is used at Guido Dhondt's company: mm, N, s, K
**  Since Length and Mass are connected by Force, if Length is mm the Mass is in t to get N
**  The following units are used to write to inp file:
**
**  Length: mm (this includes the mesh geometry)
**  Mass: t
**  TimeSpan: s
**  Temperature: K
**
**  This leads to:
**  Force: N
**  Pressure: N/mm^2 == MPa (Young's Modulus has unit Pressure)
**  Density: t/mm^3
**  Gravity: mm/s^2
**  Thermal conductivity: t*mm/K/s^3 == as W/m/K == kW/mm/K
**  Specific Heat: mm^2/s^2/K = J/kg/K == kJ/t/K
**
